Circuit: * SPICE3 file created from Decoder.ext - technology: scmos

Fatal Error: Run: Missing node(s).
