Circuit: * SPICE3 file created from mux.ext - technology: scmos

Fatal Error: Run: Missing node(s).
