Circuit: * SPICE3 file created from xnor.ext - technology: scmos

