Circuit: * SPICE3 file created from aoi31.ext - technology: scmos

Fatal Error: Run: Missing node(s).
